 
  CDK     1007101112
 
 25 28  0  0  0  0  0  0  0  0999 V2000
   19.1091   -9.8451    0.0000 C   0  0  0  0  0  4  0  0  0  0  0  0
   17.9269  -10.5409    0.0000 C   0  0  0  0  0  4  0  0  0  0  0  0
   19.1153   -8.4721    0.0000 C   0  0  0  0  0  4  0  0  0  0  0  0
   21.4858   -9.8575    0.0000 C   0  0  0  0  0  4  0  0  0  0  0  0
   16.7386   -9.8575    0.0000 C   0  0  0  0  0  4  0  0  0  0  0  0
   17.9022  -11.8956    0.0000 C   0  0  0  0  0  4  0  0  0  0  0  0
   17.9146   -7.7948    0.0000 C   0  0  0  0  0  4  0  0  0  0  0  0
   20.3099   -7.7888    0.0000 C   0  0  0  0  0  4  0  0  0  0  0  0
   19.0228   -7.0129    0.0000 C   0  0  0  0  0  4  0  0  0  0  0  0
   21.4918   -8.4843    0.0000 C   0  0  0  0  0  4  0  0  0  0  0  0
   15.5686  -10.5471    0.0000 C   0  0  0  0  0  4  0  0  0  0  0  0
   16.7262   -8.4906    0.0000 C   0  0  0  0  0  4  0  0  0  0  0  0
   16.7509  -12.5790    0.0000 C   0  0  0  0  0  4  0  0  0  0  0  0
   20.3099   -6.5163    0.0000 O   0  0  0  0  0  2  0  0  0  0  0  0
   15.5686  -11.9017    0.0000 C   0  0  0  0  0  4  0  0  0  0  0  0
   14.3926   -9.8759    0.0000 C   0  0  0  0  0  4  0  0  0  0  0  0
   14.3926  -12.5852    0.0000 C   0  0  0  0  0  4  0  0  0  0  0  0
   13.2350  -10.5471    0.0000 C   0  0  0  0  0  4  0  0  0  0  0  0
   13.2350  -11.9017    0.0000 C   0  0  0  0  0  4  0  0  0  0  0  0
   12.0714  -12.5667    0.0000 O   0  0  0  0  0  2  0  0  0  0  0  0
   22.6983   -7.7982    0.0000 O   0  0  0  0  0  2  0  0  0  0  0  0
   10.8734  -11.8680    0.0000 C   0  0  0  0  0  4  0  0  0  0  0  0
   22.7073   -9.1861    0.0000 C   0  0  0  0  0  4  0  0  0  0  0  0
   23.8925   -8.5021    0.0000 C   0  0  0  0  0  4  0  0  0  0  0  0
   25.0962   -9.1973    0.0000 C   0  0  0  0  0  4  0  0  0  0  0  0
  1  2  1  0  0  0  0 
  1  3  1  0  0  0  0 
  1  4  1  0  0  0  0 
  2  5  1  0  0  0  0 
  2  6  1  0  0  0  0 
  3  7  1  0  0  0  0 
  3  8  1  0  0  0  0 
  3  9  1  0  0  0  0 
  4 10  1  0  0  0  0 
  5 11  1  0  0  0  0 
  5 12  1  0  0  0  0 
  6 13  1  0  0  0  0 
  8 14  1  0  0  0  0 
 11 15  2  0  0  0  0 
 11 16  1  0  0  0  0 
 15 17  1  0  0  0  0 
 16 18  2  0  0  0  0 
 17 19  2  0  0  0  0 
 19 20  1  0  0  0  0 
  7 12  1  0  0  0  0 
  8 10  1  0  0  0  0 
 13 15  1  0  0  0  0 
 18 19  1  0  0  0  0 
 10 21  1  0  0  0  0 
 20 22  1  0  0  0  0 
 10 23  1  0  0  0  0 
 23 24  1  0  0  0  0 
 24 25  1  0  0  0  0 
M  END
> <DatabaseID>
cpd:C14934

> <cdk:Title>
 

> <PeaksExplained>
40

> <cdk:Remark>
 

> <Score>
0.75

$$$$
 
  CDK     1007101112
 
 25 28  0  0  0  0  0  0  0  0999 V2000
   18.4849  -13.3141    0.0000 C   0  0  0  0  0  4  0  0  0  0  0  0
   17.2984  -13.9830    0.0000 C   0  0  0  0  0  4  0  0  0  0  0  0
   19.6600  -14.0006    0.0000 C   0  0  0  0  0  4  0  0  0  0  0  0
   19.6600  -12.6162    0.0000 O   0  0  0  0  0  2  0  0  0  0  0  0
   18.5433  -11.9414    0.0000 C   0  0  0  0  0  4  0  0  0  0  0  0
   17.2924  -15.3500    0.0000 C   0  0  0  0  0  4  0  0  0  0  0  0
   16.1292  -13.2966    0.0000 C   0  0  0  0  0  4  0  0  0  0  0  0
   17.3509  -12.6162    0.0000 C   0  0  0  0  0  4  0  0  0  0  0  0
   19.6543  -15.3617    0.0000 C   0  0  0  0  0  4  0  0  0  0  0  0
   17.2751  -11.2491    0.0000 C   0  0  0  0  0  4  0  0  0  0  0  0
   19.7242  -11.2433    0.0000 O   0  0  0  0  0  2  0  0  0  0  0  0
   16.1059  -16.0305    0.0000 C   0  0  0  0  0  4  0  0  0  0  0  0
   14.9367  -13.9656    0.0000 C   0  0  0  0  0  4  0  0  0  0  0  0
   14.9251  -15.3324    0.0000 C   0  0  0  0  0  4  0  0  0  0  0  0
   16.1059  -17.3975    0.0000 C   0  0  0  0  0  4  0  0  0  0  0  0
   13.7384  -16.0189    0.0000 C   0  0  0  0  0  4  0  0  0  0  0  0
   14.9135  -18.0840    0.0000 C   0  0  0  0  0  4  0  0  0  0  0  0
   13.7327  -17.3859    0.0000 C   0  0  0  0  0  4  0  0  0  0  0  0
   12.5578  -15.3267    0.0000 C   0  0  0  0  0  4  0  0  0  0  0  0
   13.7269  -14.6461    0.0000 C   0  0  0  0  0  4  0  0  0  0  0  0
   14.9717  -19.4451    0.0000 C   0  0  0  0  0  4  0  0  0  0  0  0
   12.5578  -18.0780    0.0000 C   0  0  0  0  0  4  0  0  0  0  0  0
   11.3653  -16.0189    0.0000 C   0  0  0  0  0  4  0  0  0  0  0  0
   11.3653  -17.3859    0.0000 C   0  0  0  0  0  4  0  0  0  0  0  0
   10.1786  -18.0664    0.0000 O   0  0  0  0  0  2  0  0  0  0  0  0
  1  2  1  0  0  0  0 
  1  3  1  0  0  0  0 
  1  4  1  0  0  0  0 
  1  5  1  0  0  0  0 
  2  6  1  0  0  0  0 
  2  7  1  0  0  0  0 
  2  8  1  0  0  0  0 
  3  9  1  0  0  0  0 
  5 10  1  0  0  0  0 
  5 11  2  0  0  0  0 
  6 12  1  0  0  0  0 
  7 13  1  0  0  0  0 
 12 14  1  0  0  0  0 
 12 15  1  0  0  0  0 
 14 16  1  0  0  0  0 
 15 17  1  0  0  0  0 
 16 18  1  0  0  0  0 
 16 19  1  0  0  0  0 
 16 20  1  0  0  0  0 
 17 21  1  0  0  0  0 
 18 22  2  0  0  0  0 
 19 23  1  0  0  0  0 
 22 24  1  0  0  0  0 
 24 25  2  0  0  0  0 
  6  9  1  0  0  0  0 
 13 14  1  0  0  0  0 
 17 18  1  0  0  0  0 
 23 24  1  0  0  0  0 
M  END
> <DatabaseID>
cpd:C07119

> <cdk:Title>
 

> <PeaksExplained>
24

> <cdk:Remark>
 

> <Score>
0.43700000000000006

$$$$
 
  CDK     1007101112
 
 25 28  0  0  0  0  0  0  0  0999 V2000
   23.7350  -19.3088    0.0000 C   0  0  0  0  0  4  0  0  0  0  0  0
   24.9083  -19.9976    0.0000 C   0  0  0  0  0  4  0  0  0  0  0  0
   22.5442  -19.9859    0.0000 C   0  0  0  0  0  4  0  0  0  0  0  0
   23.7466  -17.9427    0.0000 C   0  0  0  0  0  4  0  0  0  0  0  0
   26.0934  -19.3204    0.0000 C   0  0  0  0  0  4  0  0  0  0  0  0
   24.9083  -21.3696    0.0000 C   0  0  0  0  0  4  0  0  0  0  0  0
   22.5382  -21.3636    0.0000 C   0  0  0  0  0  4  0  0  0  0  0  0
   21.3591  -19.3030    0.0000 C   0  0  0  0  0  4  0  0  0  0  0  0
   22.5325  -18.6199    0.0000 C   0  0  0  0  0  4  0  0  0  0  0  0
   24.9317  -17.2715    0.0000 C   0  0  0  0  0  4  0  0  0  0  0  0
   26.1108  -17.9544    0.0000 C   0  0  0  0  0  4  0  0  0  0  0  0
   28.4634  -19.3497    0.0000 C   0  0  0  0  0  4  0  0  0  0  0  0
   23.7233  -22.0525    0.0000 C   0  0  0  0  0  4  0  0  0  0  0  0
   21.3591  -22.0467    0.0000 C   0  0  0  0  0  4  0  0  0  0  0  0
   20.1798  -19.9859    0.0000 C   0  0  0  0  0  4  0  0  0  0  0  0
   27.2958  -17.2832    0.0000 C   0  0  0  0  0  4  0  0  0  0  0  0
   26.1050  -16.5767    0.0000 C   0  0  0  0  0  4  0  0  0  0  0  0
   28.4809  -17.9778    0.0000 C   0  0  0  0  0  4  0  0  0  0  0  0
   20.1798  -21.3636    0.0000 C   0  0  0  0  0  4  0  0  0  0  0  0
   27.3075  -15.9112    0.0000 O   0  0  0  0  0  2  0  0  0  0  0  0
   18.9831  -22.0408    0.0000 O   0  0  0  0  0  2  0  0  0  0  0  0
   28.4926  -15.2283    0.0000 C   0  0  0  0  0  4  0  0  0  0  0  0
   29.6776  -15.9112    0.0000 C   0  0  0  0  0  4  0  0  0  0  0  0
   28.4809  -13.8623    0.0000 O   0  0  0  0  0  2  0  0  0  0  0  0
   30.8510  -15.2283    0.0000 C   0  0  0  0  0  4  0  0  0  0  0  0
  1  2  1  0  0  0  0 
  1  3  1  0  0  0  0 
  1  4  1  0  0  0  0 
  2  5  1  0  0  0  0 
  2  6  1  0  0  0  0 
  3  7  1  0  0  0  0 
  3  8  1  0  0  0  0 
  3  9  1  0  0  0  0 
  4 10  1  0  0  0  0 
  5 11  1  0  0  0  0 
  5 12  1  0  0  0  0 
  6 13  1  0  0  0  0 
  7 14  2  0  0  0  0 
  8 15  1  0  0  0  0 
 11 16  1  0  0  0  0 
 11 17  1  0  0  0  0 
 12 18  1  0  0  0  0 
 14 19  1  0  0  0  0 
 16 20  1  0  0  0  0 
 19 21  2  0  0  0  0 
 20 22  1  0  0  0  0 
 22 23  1  0  0  0  0 
 22 24  2  0  0  0  0 
 23 25  1  0  0  0  0 
  7 13  1  0  0  0  0 
 10 11  1  0  0  0  0 
 15 19  1  0  0  0  0 
 16 18  1  0  0  0  0 
M  END
> <DatabaseID>
cpd:C08158

> <cdk:Title>
 

> <PeaksExplained>
9

> <cdk:Remark>
 

> <Score>
0.42200000000000004

$$$$
 
  CDK     1007101112
 
 25 28  0  0  0  0  0  0  0  0999 V2000
   22.8475  -17.1928    0.0000 C   0  0  0  0  0  4  0  0  0  0  0  0
   21.6817  -16.5248    0.0000 C   0  0  0  0  0  4  0  0  0  0  0  0
   24.0197  -16.5126    0.0000 C   0  0  0  0  0  4  0  0  0  0  0  0
   22.8291  -18.5895    0.0000 C   0  0  0  0  0  4  0  0  0  0  0  0
   20.5218  -17.2050    0.0000 C   0  0  0  0  0  4  0  0  0  0  0  0
   21.6695  -15.1705    0.0000 C   0  0  0  0  0  4  0  0  0  0  0  0
   24.0256  -15.1584    0.0000 C   0  0  0  0  0  4  0  0  0  0  0  0
   26.3637  -16.5186    0.0000 C   0  0  0  0  0  4  0  0  0  0  0  0
   21.6877  -19.2089    0.0000 C   0  0  0  0  0  4  0  0  0  0  0  0
   20.5218  -18.5409    0.0000 C   0  0  0  0  0  4  0  0  0  0  0  0
   19.3801  -16.5491    0.0000 C   0  0  0  0  0  4  0  0  0  0  0  0
   20.5036  -15.5773    0.0000 C   0  0  0  0  0  4  0  0  0  0  0  0
   22.8415  -14.4904    0.0000 C   0  0  0  0  0  4  0  0  0  0  0  0
   25.1977  -14.4844    0.0000 C   0  0  0  0  0  4  0  0  0  0  0  0
   24.0255  -13.5463    0.0000 C   0  0  0  0  0  4  0  0  0  0  0  0
   26.3637  -15.1705    0.0000 C   0  0  0  0  0  4  0  0  0  0  0  0
   19.3618  -19.2150    0.0000 C   0  0  0  0  0  4  0  0  0  0  0  0
   18.2203  -17.2050    0.0000 C   0  0  0  0  0  4  0  0  0  0  0  0
   18.2203  -18.5409    0.0000 C   0  0  0  0  0  4  0  0  0  0  0  0
   16.9852  -19.2459    0.0000 O   0  0  0  0  0  2  0  0  0  0  0  0
   25.2047  -13.0900    0.0000 C   0  0  0  0  0  4  0  0  0  0  0  0
   26.4171  -12.3981    0.0000 O   0  0  0  0  0  2  0  0  0  0  0  0
   27.6022  -13.0904    0.0000 C   0  0  0  0  0  4  0  0  0  0  0  0
   28.8015  -12.4060    0.0000 C   0  0  0  0  0  4  0  0  0  0  0  0
   27.5951  -14.4899    0.0000 O   0  0  0  0  0  2  0  0  0  0  0  0
  1  2  1  0  0  0  0 
  1  3  1  0  0  0  0 
  1  4  1  0  0  0  0 
  2  5  1  0  0  0  0 
  2  6  1  0  0  0  0 
  3  7  1  0  0  0  0 
  3  8  1  0  0  0  0 
  4  9  1  0  0  0  0 
  5 10  1  0  0  0  0 
  5 11  1  0  0  0  0 
  5 12  1  0  0  0  0 
  6 13  1  0  0  0  0 
  7 14  1  0  0  0  0 
  7 15  1  0  0  0  0 
  8 16  1  0  0  0  0 
 10 17  2  0  0  0  0 
 11 18  1  0  0  0  0 
 17 19  1  0  0  0  0 
  7 13  1  0  0  0  0 
  9 10  1  0  0  0  0 
 14 16  1  0  0  0  0 
 18 19  1  0  0  0  0 
 19 20  2  0  0  0  0 
 14 21  1  0  0  0  0 
 21 22  1  0  0  0  0 
 22 23  1  0  0  0  0 
 23 24  1  0  0  0  0 
 23 25  2  0  0  0  0 
M  END
> <DatabaseID>
cpd:C15064

> <cdk:Title>
 

> <PeaksExplained>
9

> <cdk:Remark>
 

> <Score>
0.42200000000000004

$$$$
 
  CDK     1007101112
 
 25 28  0  0  0  0  0  0  0  0999 V2000
   27.0475  -19.7828    0.0000 C   0  0  0  0  0  4  0  0  0  0  0  0
   25.8817  -19.1148    0.0000 C   0  0  0  0  0  4  0  0  0  0  0  0
   28.2197  -19.1026    0.0000 C   0  0  0  0  0  4  0  0  0  0  0  0
   27.0291  -21.1795    0.0000 C   0  0  0  0  0  4  0  0  0  0  0  0
   24.7218  -19.7950    0.0000 C   0  0  0  0  0  4  0  0  0  0  0  0
   25.8695  -17.7605    0.0000 C   0  0  0  0  0  4  0  0  0  0  0  0
   28.2256  -17.7484    0.0000 C   0  0  0  0  0  4  0  0  0  0  0  0
   30.5637  -19.1086    0.0000 C   0  0  0  0  0  4  0  0  0  0  0  0
   25.8877  -21.7989    0.0000 C   0  0  0  0  0  4  0  0  0  0  0  0
   24.7218  -21.1309    0.0000 C   0  0  0  0  0  4  0  0  0  0  0  0
   23.5801  -19.1391    0.0000 C   0  0  0  0  0  4  0  0  0  0  0  0
   24.7036  -18.1673    0.0000 C   0  0  0  0  0  4  0  0  0  0  0  0
   27.0415  -17.0804    0.0000 C   0  0  0  0  0  4  0  0  0  0  0  0
   29.3977  -17.0744    0.0000 C   0  0  0  0  0  4  0  0  0  0  0  0
   28.2255  -16.1363    0.0000 C   0  0  0  0  0  4  0  0  0  0  0  0
   30.5637  -17.7605    0.0000 C   0  0  0  0  0  4  0  0  0  0  0  0
   23.5618  -21.8050    0.0000 C   0  0  0  0  0  4  0  0  0  0  0  0
   22.4203  -19.7950    0.0000 C   0  0  0  0  0  4  0  0  0  0  0  0
   22.4203  -21.1309    0.0000 C   0  0  0  0  0  4  0  0  0  0  0  0
   21.1852  -21.8359    0.0000 O   0  0  0  0  0  2  0  0  0  0  0  0
   29.4047  -15.6800    0.0000 O   0  0  0  0  0  2  0  0  0  0  0  0
   30.6171  -14.9881    0.0000 C   0  0  0  0  0  4  0  0  0  0  0  0
   31.8022  -15.6804    0.0000 C   0  0  0  0  0  4  0  0  0  0  0  0
   30.6244  -13.5804    0.0000 O   0  0  0  0  0  2  0  0  0  0  0  0
   33.0015  -14.9960    0.0000 C   0  0  0  0  0  4  0  0  0  0  0  0
  1  2  1  0  0  0  0 
  1  3  1  0  0  0  0 
  1  4  1  0  0  0  0 
  2  5  1  0  0  0  0 
  2  6  1  0  0  0  0 
  3  7  1  0  0  0  0 
  3  8  1  0  0  0  0 
  4  9  1  0  0  0  0 
  5 10  1  0  0  0  0 
  5 11  1  0  0  0  0 
  5 12  1  0  0  0  0 
  6 13  1  0  0  0  0 
  7 14  1  0  0  0  0 
  7 15  1  0  0  0  0 
  8 16  1  0  0  0  0 
 10 17  1  0  0  0  0 
 11 18  2  0  0  0  0 
 17 19  1  0  0  0  0 
  7 13  1  0  0  0  0 
  9 10  1  0  0  0  0 
 14 16  1  0  0  0  0 
 18 19  1  0  0  0  0 
 19 20  2  0  0  0  0 
 14 21  1  0  0  0  0 
 21 22  1  0  0  0  0 
 22 23  1  0  0  0  0 
 22 24  2  0  0  0  0 
 23 25  1  0  0  0  0 
M  END
> <DatabaseID>
cpd:C15273

> <cdk:Title>
 

> <PeaksExplained>
9

> <cdk:Remark>
 

> <Score>
0.42200000000000004

$$$$
 
  CDK     1007101112
 
 25 28  0  0  0  0  0  0  0  0999 V2000
   22.1651  -19.7569    0.0000 C   0  0  0  0  0  4  0  0  0  0  0  0
   22.1651  -21.1183    0.0000 C   0  0  0  0  0  4  0  0  0  0  0  0
   23.3439  -21.7988    0.0000 C   0  0  0  0  0  4  0  0  0  0  0  0
   24.5228  -21.1183    0.0000 C   0  0  0  0  0  4  0  0  0  0  0  0
   24.5228  -19.7569    0.0000 C   0  0  0  0  0  4  0  0  0  0  0  0
   23.3439  -19.0763    0.0000 C   0  0  0  0  0  4  0  0  0  0  0  0
   25.7017  -21.7988    0.0000 C   0  0  0  0  0  4  0  0  0  0  0  0
   26.8806  -21.1183    0.0000 C   0  0  0  0  0  4  0  0  0  0  0  0
   26.8806  -19.7569    0.0000 C   0  0  0  0  0  4  0  0  0  0  0  0
   25.7017  -19.0763    0.0000 C   0  0  0  0  0  4  0  0  0  0  0  0
   28.0595  -19.0763    0.0000 C   0  0  0  0  0  4  0  0  0  0  0  0
   28.0595  -17.7151    0.0000 C   0  0  0  0  0  4  0  0  0  0  0  0
   26.8806  -17.0346    0.0000 C   0  0  0  0  0  4  0  0  0  0  0  0
   25.7017  -17.7151    0.0000 C   0  0  0  0  0  4  0  0  0  0  0  0
   30.4171  -19.0763    0.0000 C   0  0  0  0  0  4  0  0  0  0  0  0
   30.4171  -17.7151    0.0000 C   0  0  0  0  0  4  0  0  0  0  0  0
   29.2383  -17.0346    0.0000 C   0  0  0  0  0  4  0  0  0  0  0  0
   28.0865  -16.3539    0.0000 C   0  0  0  0  0  4  0  0  0  0  0  0
   29.2435  -15.6733    0.0000 C   0  0  0  0  0  4  0  0  0  0  0  0
   24.5198  -18.3565    0.0000 C   0  0  0  0  0  4  0  0  0  0  0  0
   24.4988  -17.0207    0.0000 O   0  0  0  0  0  2  0  0  0  0  0  0
   25.7017  -23.1897    0.0000 C   0  0  0  0  0  4  0  0  0  0  0  0
   20.9444  -21.8233    0.0000 O   0  0  0  0  0  2  0  0  0  0  0  0
   30.4276  -14.9957    0.0000 C   0  0  0  0  0  4  0  0  0  0  0  0
   28.0193  -14.9597    0.0000 O   0  0  0  0  0  2  0  0  0  0  0  0
  1  2  1  0  0  0  0 
  2  3  1  0  0  0  0 
  3  4  2  0  0  0  0 
  4  5  1  0  0  0  0 
  5  6  1  0  0  0  0 
  1  6  1  0  0  0  0 
  4  7  1  0  0  0  0 
  7  8  1  0  0  0  0 
  8  9  1  0  0  0  0 
  9 10  1  0  0  0  0 
  5 10  1  0  0  0  0 
  9 11  1  0  0  0  0 
 11 12  1  0  0  0  0 
 12 13  1  0  0  0  0 
 13 14  1  0  0  0  0 
 10 14  1  0  0  0  0 
 11 15  1  0  0  0  0 
 15 16  1  0  0  0  0 
 16 17  1  0  0  0  0 
 12 17  1  0  0  0  0 
 12 18  1  0  0  0  0 
 17 19  1  0  0  0  0 
  5 20  1  0  0  0  0 
 14 21  1  0  0  0  0 
  7 22  1  0  0  0  0 
  2 23  2  0  0  0  0 
 19 24  1  0  0  0  0 
 19 25  2  0  0  0  0 
M  END
> <DatabaseID>
cpd:C14643

> <cdk:Title>
 

> <PeaksExplained>
8

> <cdk:Remark>
 

> <Score>
0.40075

$$$$
 
  CDK     1007101112
 
 25 28  0  0  0  0  0  0  0  0999 V2000
   22.3470  -17.5806    0.0000 C   0  0  0  0  0  4  0  0  0  0  0  0
   21.2283  -16.9454    0.0000 C   0  0  0  0  0  4  0  0  0  0  0  0
   23.4543  -16.9337    0.0000 C   0  0  0  0  0  4  0  0  0  0  0  0
   22.3237  -18.8509    0.0000 C   0  0  0  0  0  4  0  0  0  0  0  0
   20.1328  -17.5923    0.0000 C   0  0  0  0  0  4  0  0  0  0  0  0
   21.2224  -15.6634    0.0000 C   0  0  0  0  0  4  0  0  0  0  0  0
   23.4543  -15.6518    0.0000 C   0  0  0  0  0  4  0  0  0  0  0  0
   25.6804  -16.9396    0.0000 C   0  0  0  0  0  4  0  0  0  0  0  0
   21.2400  -19.4919    0.0000 C   0  0  0  0  0  4  0  0  0  0  0  0
   20.1328  -18.8626    0.0000 C   0  0  0  0  0  4  0  0  0  0  0  0
   19.0315  -16.9630    0.0000 C   0  0  0  0  0  4  0  0  0  0  0  0
   20.1152  -16.1180    0.0000 C   0  0  0  0  0  4  0  0  0  0  0  0
   22.3354  -15.0167    0.0000 C   0  0  0  0  0  4  0  0  0  0  0  0
   24.5789  -15.0108    0.0000 C   0  0  0  0  0  4  0  0  0  0  0  0
   25.6861  -15.6577    0.0000 C   0  0  0  0  0  4  0  0  0  0  0  0
   19.0315  -19.5036    0.0000 C   0  0  0  0  0  4  0  0  0  0  0  0
   17.9476  -17.5923    0.0000 C   0  0  0  0  0  4  0  0  0  0  0  0
   24.5789  -13.0521    0.0000 C   0  0  0  0  0  4  0  0  0  0  0  0
   17.9476  -18.8626    0.0000 C   0  0  0  0  0  4  0  0  0  0  0  0
   25.6687  -12.4345    0.0000 C   0  0  0  0  0  4  0  0  0  0  0  0
   23.4543  -14.2518    0.0000 C   0  0  0  0  0  4  0  0  0  0  0  0
   16.7254  -19.5600    0.0000 O   0  0  0  0  0  2  0  0  0  0  0  0
   23.3486  -12.3357    0.0000 O   0  0  0  0  0  2  0  0  0  0  0  0
   20.0053  -14.9667    0.0000 O   0  0  0  0  0  2  0  0  0  0  0  0
   22.3354  -13.6167    0.0000 C   0  0  0  0  0  4  0  0  0  0  0  0
  1  2  1  0  0  0  0 
  1  3  1  0  0  0  0 
  1  4  1  0  0  0  0 
  2  5  1  0  0  0  0 
  2  6  1  0  0  0  0 
  3  7  1  0  0  0  0 
  3  8  1  0  0  0  0 
  4  9  1  0  0  0  0 
  5 10  1  0  0  0  0 
  5 11  1  0  0  0  0 
  5 12  1  0  0  0  0 
  6 13  1  0  0  0  0 
  7 14  1  0  0  0  0 
  8 15  1  0  0  0  0 
 10 16  2  0  0  0  0 
 11 17  1  0  0  0  0 
 14 18  1  0  0  0  0 
 16 19  1  0  0  0  0 
 18 20  1  0  0  0  0 
  7 13  1  0  0  0  0 
  9 10  1  0  0  0  0 
 14 15  1  0  0  0  0 
 17 19  1  0  0  0  0 
  7 21  1  0  0  0  0 
 19 22  2  0  0  0  0 
 18 23  2  0  0  0  0 
  6 24  1  0  0  0  0 
 13 25  1  0  0  0  0 
M  END
> <DatabaseID>
cpd:C14964

> <cdk:Title>
 

> <PeaksExplained>
12

> <cdk:Remark>
 

> <Score>
0.3855

$$$$

  CDK     1007101112

 25 27  0  0  0  0  0  0  0  0999 V2000
    3.9041   -6.7333    0.0000 N   0  0  0  0  0  3  0  0  0  0  0  0
   -1.1159   -5.4948    0.0000 C   0  0  0  0  0  4  0  0  0  0  0  0
   -1.1171   -6.3263    0.0000 C   0  0  0  0  0  4  0  0  0  0  0  0
   -0.3981   -6.7434    0.0000 C   0  0  0  0  0  4  0  0  0  0  0  0
    0.3226   -6.3258    0.0000 C   0  0  0  0  0  4  0  0  0  0  0  0
    0.3197   -5.4912    0.0000 C   0  0  0  0  0  4  0  0  0  0  0  0
   -0.3999   -5.0821    0.0000 C   0  0  0  0  0  4  0  0  0  0  0  0
    1.0416   -6.7417    0.0000 O   0  0  0  0  0  2  0  0  0  0  0  0
    1.7541   -6.3250    0.0000 C   0  0  0  0  0  4  0  0  0  0  0  0
    2.4708   -6.7375    0.0000 C   0  0  0  0  0  4  0  0  0  0  0  0
    3.1875   -6.3208    0.0000 C   0  0  0  0  0  4  0  0  0  0  0  0
   -1.8360   -6.7424    0.0000 C   0  0  0  0  0  4  0  0  0  0  0  0
   -2.5543   -6.3252    0.0000 N   0  0  0  0  0  3  0  0  0  0  0  0
   -2.5473   -5.4953    0.0000 C   0  0  0  0  0  4  0  0  0  0  0  0
   -3.2615   -5.0824    0.0000 C   0  0  0  0  0  4  0  0  0  0  0  0
   -3.9829   -5.4908    0.0000 C   0  0  0  0  0  4  0  0  0  0  0  0
   -3.9855   -6.3209    0.0000 C   0  0  0  0  0  4  0  0  0  0  0  0
   -3.2668   -6.7426    0.0000 C   0  0  0  0  0  4  0  0  0  0  0  0
    4.6214   -6.3143    0.0000 C   0  0  0  0  0  4  0  0  0  0  0  0
    5.3824   -6.6511    0.0000 N   0  0  0  0  0  3  0  0  0  0  0  0
    5.9367   -6.0321    0.0000 C   0  0  0  0  0  4  0  0  0  0  0  0
    5.5176   -5.3148    0.0000 N   0  0  0  0  0  3  0  0  0  0  0  0
    4.7070   -5.4889    0.0000 N   0  0  0  0  0  3  0  0  0  0  0  0
    4.0887   -4.9381    0.0000 C   0  0  0  0  0  4  0  0  0  0  0  0
    6.7616   -6.1156    0.0000 N   0  0  0  0  0  3  0  0  0  0  0  0
  3  4  1  0  0  0  0 
  3 12  1  0  0  0  0 
  4  5  2  0  0  0  0 
 12 13  1  0  0  0  0 
 13 14  1  0  0  0  0 
  5  6  1  0  0  0  0 
  6  7  2  0  0  0  0 
  7  2  1  0  0  0  0 
 13 18  1  0  0  0  0 
 14 15  1  0  0  0  0 
 15 16  1  0  0  0  0 
 16 17  1  0  0  0  0 
 17 18  1  0  0  0  0 
  1 19  1  0  0  0  0 
  8  9  1  0  0  0  0 
  9 10  1  0  0  0  0 
  2  3  2  0  0  0  0 
 10 11  1  0  0  0  0 
 19 20  2  0  0  0  0 
 20 21  1  0  0  0  0 
 21 22  2  0  0  0  0 
 22 23  1  0  0  0  0 
 23 19  1  0  0  0  0 
 11  1  1  0  0  0  0 
 23 24  1  0  0  0  0 
  8  5  1  0  0  0  0 
 21 25  1  0  0  0  0 
M  END
> <DatabaseID>
cpd:C11804

> <PeaksExplained>
9

> <Score>
0.20449999999999996

$$$$
 
  CDK     1007101112
 
 25 28  0  0  0  0  0  0  0  0999 V2000
   22.7075  -16.6328    0.0000 C   0  0  0  0  0  4  0  0  0  0  0  0
   21.5417  -15.9648    0.0000 C   0  0  0  0  0  4  0  0  0  0  0  0
   23.8797  -15.9526    0.0000 C   0  0  0  0  0  4  0  0  0  0  0  0
   22.6891  -18.0295    0.0000 C   0  0  0  0  0  4  0  0  0  0  0  0
   20.3818  -16.6450    0.0000 C   0  0  0  0  0  4  0  0  0  0  0  0
   21.5295  -14.6105    0.0000 C   0  0  0  0  0  4  0  0  0  0  0  0
   23.8856  -14.5984    0.0000 C   0  0  0  0  0  4  0  0  0  0  0  0
   26.2237  -15.9586    0.0000 C   0  0  0  0  0  4  0  0  0  0  0  0
   21.5477  -18.6489    0.0000 C   0  0  0  0  0  4  0  0  0  0  0  0
   20.3818  -17.9809    0.0000 C   0  0  0  0  0  4  0  0  0  0  0  0
   19.2401  -15.9891    0.0000 C   0  0  0  0  0  4  0  0  0  0  0  0
   20.3636  -15.0173    0.0000 C   0  0  0  0  0  4  0  0  0  0  0  0
   22.7015  -13.9304    0.0000 C   0  0  0  0  0  4  0  0  0  0  0  0
   25.0577  -13.9244    0.0000 C   0  0  0  0  0  4  0  0  0  0  0  0
   23.8855  -12.9863    0.0000 C   0  0  0  0  0  4  0  0  0  0  0  0
   26.2237  -14.6105    0.0000 C   0  0  0  0  0  4  0  0  0  0  0  0
   19.2218  -18.6550    0.0000 C   0  0  0  0  0  4  0  0  0  0  0  0
   18.0803  -16.6450    0.0000 C   0  0  0  0  0  4  0  0  0  0  0  0
   18.0803  -17.9809    0.0000 C   0  0  0  0  0  4  0  0  0  0  0  0
   27.4500  -13.9090    0.0000 C   0  0  0  0  0  4  0  0  0  0  0  0
   28.6612  -14.6146    0.0000 O   0  0  0  0  0  2  0  0  0  0  0  0
   16.8452  -18.6859    0.0000 O   0  0  0  0  0  2  0  0  0  0  0  0
   15.6566  -17.9917    0.0000 C   0  0  0  0  0  4  0  0  0  0  0  0
   14.4591  -18.6752    0.0000 C   0  0  0  0  0  4  0  0  0  0  0  0
   15.6635  -16.5901    0.0000 O   0  0  0  0  0  2  0  0  0  0  0  0
  1  2  1  0  0  0  0 
  1  3  1  0  0  0  0 
  1  4  1  0  0  0  0 
  2  5  1  0  0  0  0 
  2  6  1  0  0  0  0 
  3  7  1  0  0  0  0 
  3  8  1  0  0  0  0 
  4  9  1  0  0  0  0 
  5 10  1  0  0  0  0 
  5 11  1  0  0  0  0 
  5 12  1  0  0  0  0 
  6 13  1  0  0  0  0 
  7 14  1  0  0  0  0 
  7 15  1  0  0  0  0 
  8 16  1  0  0  0  0 
 10 17  1  0  0  0  0 
 11 18  1  0  0  0  0 
 17 19  1  0  0  0  0 
  7 13  1  0  0  0  0 
  9 10  1  0  0  0  0 
 14 16  2  0  0  0  0 
 18 19  1  0  0  0  0 
 16 20  1  0  0  0  0 
 20 21  2  0  0  0  0 
 19 22  1  0  0  0  0 
 22 23  1  0  0  0  0 
 23 24  1  0  0  0  0 
 23 25  2  0  0  0  0 
M  END
> <DatabaseID>
cpd:C15001

> <cdk:Title>
 

> <PeaksExplained>
8

> <cdk:Remark>
 

> <Score>
0.17975000000000002

$$$$
 
  CDK     1007101112
 
 25 28  0  0  0  0  0  0  0  0999 V2000
   24.4575  -16.6328    0.0000 C   0  0  0  0  0  4  0  0  0  0  0  0
   23.2917  -15.9648    0.0000 C   0  0  0  0  0  4  0  0  0  0  0  0
   25.6297  -15.9526    0.0000 C   0  0  0  0  0  4  0  0  0  0  0  0
   24.4391  -18.0295    0.0000 C   0  0  0  0  0  4  0  0  0  0  0  0
   22.1318  -16.6450    0.0000 C   0  0  0  0  0  4  0  0  0  0  0  0
   23.2795  -14.6105    0.0000 C   0  0  0  0  0  4  0  0  0  0  0  0
   25.6356  -14.5984    0.0000 C   0  0  0  0  0  4  0  0  0  0  0  0
   27.9737  -15.9586    0.0000 C   0  0  0  0  0  4  0  0  0  0  0  0
   23.2977  -18.6489    0.0000 C   0  0  0  0  0  4  0  0  0  0  0  0
   22.1318  -17.9809    0.0000 C   0  0  0  0  0  4  0  0  0  0  0  0
   20.9901  -15.9891    0.0000 C   0  0  0  0  0  4  0  0  0  0  0  0
   22.1136  -15.0173    0.0000 C   0  0  0  0  0  4  0  0  0  0  0  0
   24.4515  -13.9304    0.0000 C   0  0  0  0  0  4  0  0  0  0  0  0
   26.8077  -13.9244    0.0000 C   0  0  0  0  0  4  0  0  0  0  0  0
   25.6355  -12.9863    0.0000 C   0  0  0  0  0  4  0  0  0  0  0  0
   27.9737  -14.6105    0.0000 C   0  0  0  0  0  4  0  0  0  0  0  0
   20.9718  -18.6550    0.0000 C   0  0  0  0  0  4  0  0  0  0  0  0
   19.8303  -16.6450    0.0000 C   0  0  0  0  0  4  0  0  0  0  0  0
   19.8303  -17.9809    0.0000 C   0  0  0  0  0  4  0  0  0  0  0  0
   18.5952  -18.6859    0.0000 O   0  0  0  0  0  2  0  0  0  0  0  0
   26.8147  -12.5300    0.0000 O   0  0  0  0  0  2  0  0  0  0  0  0
   28.1600  -13.5620    0.0000 C   0  0  0  0  0  4  0  0  0  0  0  0
   17.4066  -17.9917    0.0000 C   0  0  0  0  0  4  0  0  0  0  0  0
   16.2091  -18.6752    0.0000 C   0  0  0  0  0  4  0  0  0  0  0  0
   17.4136  -16.5901    0.0000 O   0  0  0  0  0  2  0  0  0  0  0  0
  1  2  1  0  0  0  0 
  1  3  1  0  0  0  0 
  1  4  1  0  0  0  0 
  2  5  1  0  0  0  0 
  2  6  1  0  0  0  0 
  3  7  1  0  0  0  0 
  3  8  1  0  0  0  0 
  4  9  2  0  0  0  0 
  5 10  1  0  0  0  0 
  5 11  1  0  0  0  0 
  5 12  1  0  0  0  0 
  6 13  1  0  0  0  0 
  7 14  1  0  0  0  0 
  7 15  1  0  0  0  0 
  8 16  1  0  0  0  0 
 10 17  2  0  0  0  0 
 11 18  1  0  0  0  0 
 17 19  1  0  0  0  0 
  7 13  1  0  0  0  0 
  9 10  1  0  0  0  0 
 14 16  1  0  0  0  0 
 18 19  1  0  0  0  0 
 19 20  1  0  0  0  0 
 14 21  1  0  0  0  0 
 14 22  1  0  0  0  0 
 20 23  1  0  0  0  0 
 23 24  1  0  0  0  0 
 23 25  2  0  0  0  0 
M  END
> <DatabaseID>
cpd:C14954

> <cdk:Title>
 

> <PeaksExplained>
23

> <cdk:Remark>
 

> <Score>
0.14775

$$$$
