
 PCMODEL  v9.1   1.00000     0.00000

 23 23  0  0  0  0              1 V2000
    3.5989    4.1239    4.1293 C   0  0  0  0  0  0 
    2.5673    4.2626    3.2001 C   0  0  0  0  0  0 
    2.8628    4.5189    1.8628 C   0  0  0  0  0  0 
    4.1898    4.6380    1.4540 C   0  0  0  0  0  0 
    5.2239    4.4996    2.3814 C   0  0  0  0  0  0 
    4.9378    4.2393    3.7283 C   0  0  0  0  0  0 
    6.0468    4.0795    4.7355 C   0  0  0  0  0  0 
    6.1549    2.6674    5.2750 C   0  0  0  0  0  0 
    5.8654    2.4054    6.4447 O   0  0  0  0  0  0 
    6.6373    1.5861    4.3291 C   0  0  0  0  0  0 
    5.5342    0.5889    4.0353 C   0  0  0  0  0  0 
    3.3520    3.9224    5.1709 H   0  0  0  0  0  0 
    1.5326    4.1710    3.5205 H   0  0  0  0  0  0 
    2.0586    4.6275    1.1397 H   0  0  0  0  0  0 
    4.4189    4.8408    0.4109 H   0  0  0  0  0  0 
    6.2525    4.5984    2.0420 H   0  0  0  0  0  0 
    7.0180    4.3578    4.3099 H   0  0  0  0  0  0 
    5.8745    4.7654    5.5739 H   0  0  0  0  0  0 
    7.4941    1.0883    4.7962 H   0  0  0  0  0  0 
    6.9980    2.0382    3.3997 H   0  0  0  0  0  0 
    5.1770    0.1127    4.9544 H   0  0  0  0  0  0 
    5.8976   -0.1946    3.3635 H   0  0  0  0  0  0 
    4.6775    1.0765    3.5598 H   0  0  0  0  0  0 
  1  2  1  0
  1  6  2  0
  1 12  1  0
  2  3  2  0
  2 13  1  0
  3  4  1  0
  3 14  1  0
  4  5  2  0
  4 15  1  0
  5  6  1  0
  5 16  1  0
  6  7  1  0
  7  8  1  0
  7 17  1  0
  7 18  1  0
  8  9  2  0
  8 10  1  0
 10 11  1  0
 10 19  1  0
 10 20  1  0
 11 21  1  0
 11 22  1  0
 11 23  1  0
M  END
> <title>

> <MMFF94 energy>
31.171277

$$$$

 PCMODEL  v9.1   1.00000     0.00000

 36 37  0  0  0  0              1 V2000
    5.2445    4.6037    3.0542 C   0  0  0  0  0  0 
    5.1558    5.2130    1.8018 C   0  0  0  0  0  0 
    4.3630    4.6481    0.8049 C   0  0  0  0  0  0 
    3.6595    3.4721    1.0578 C   0  0  0  0  0  0 
    3.7445    2.8620    2.3099 C   0  0  0  0  0  0 
    4.5344    3.4255    3.3221 C   0  0  0  0  0  0 
    4.6223    2.7679    4.6751 C   0  0  0  0  0  0 
    3.3111    2.7408    5.4354 C   0  0  0  0  0  0 
    2.8857    1.6842    5.9129 O   0  0  0  0  0  0 
    2.5679    4.0429    5.6800 C   0  0  0  0  0  0 
    2.9346    4.6778    7.0202 C   0  0  0  0  0  0 
    4.1707    5.5791    6.9677 C   0  0  0  0  0  0 
    3.9887    6.8493    6.1379 C   0  0  0  0  0  0 
    5.1084    7.7715    6.6110 C   0  0  0  0  0  0 
    5.4782    7.3039    8.0187 C   0  0  0  0  0  0 
    4.5354    6.1493    8.3382 C   0  0  0  0  0  0 
    5.8723    5.0583    3.8174 H   0  0  0  0  0  0 
    5.7083    6.1277    1.6021 H   0  0  0  0  0  0 
    4.2965    5.1218   -0.1712 H   0  0  0  0  0  0 
    3.0464    3.0274    0.2779 H   0  0  0  0  0  0 
    3.1924    1.9409    2.4893 H   0  0  0  0  0  0 
    4.9607    1.7337    4.5328 H   0  0  0  0  0  0 
    5.3769    3.2494    5.3040 H   0  0  0  0  0  0 
    1.5010    3.7839    5.6916 H   0  0  0  0  0  0 
    2.6942    4.7303    4.8406 H   0  0  0  0  0  0 
    2.0781    5.2721    7.3639 H   0  0  0  0  0  0 
    3.0910    3.8950    7.7730 H   0  0  0  0  0  0 
    5.0309    5.0174    6.5869 H   0  0  0  0  0  0 
    4.0480    6.6662    5.0615 H   0  0  0  0  0  0 
    3.0164    7.3132    6.3450 H   0  0  0  0  0  0 
    4.7899    8.8189    6.6007 H   0  0  0  0  0  0 
    5.9790    7.6863    5.9503 H   0  0  0  0  0  0 
    6.5192    6.9604    8.0331 H   0  0  0  0  0  0 
    5.3880    8.1096    8.7541 H   0  0  0  0  0  0 
    5.0064    5.4046    8.9873 H   0  0  0  0  0  0 
    3.6445    6.5298    8.8531 H   0  0  0  0  0  0 
  1  2  1  0
  1  6  2  0
  1 17  1  0
  2  3  2  0
  2 18  1  0
  3  4  1  0
  3 19  1  0
  4  5  2  0
  4 20  1  0
  5  6  1  0
  5 21  1  0
  6  7  1  0
  7  8  1  0
  7 22  1  0
  7 23  1  0
  8  9  2  0
  8 10  1  0
 10 11  1  0
 10 24  1  0
 10 25  1  0
 11 12  1  0
 11 26  1  0
 11 27  1  0
 12 13  1  0
 12 16  1  0
 12 28  1  0
 13 14  1  0
 13 29  1  0
 13 30  1  0
 14 15  1  0
 14 31  1  0
 14 32  1  0
 15 16  1  0
 15 33  1  0
 15 34  1  0
 16 35  1  0
 16 36  1  0
M  END
> <title>

> <MMFF94 energy>
41.910233

$$$$

 PCMODEL  v9.1   1.00000     0.00000

 20 19  0  0  0  0              1 V2000
    2.5861    3.1482    4.6211 C   0  0  0  0  0  0 
    2.8787    3.0522    3.1473 C   0  0  0  0  0  0 
    3.4695    2.0826    2.6697 O   0  0  0  0  0  0 
    2.4717    4.2135    2.2862 C   0  0  0  0  0  0 
    3.5097    5.2998    2.3085 C   0  0  0  0  0  0 
    3.5215    6.1439    3.2077 O   0  0  0  0  0  0 
    4.5583    5.3022    1.2196 C   0  0  0  0  0  0 
    4.1324    6.1911    0.0608 C   0  0  0  0  0  0 
    3.1135    5.5448   -0.7639 N   0  0  0  0  0  0 
    3.5191    4.7375   -1.2406 H   0  0  0  0  0  0 
    2.8322    6.1855   -1.5081 H   0  0  0  0  0  0 
    1.5156    3.3068    4.7734 H   0  0  0  0  0  0 
    3.1557    3.9707    5.0593 H   0  0  0  0  0  0 
    2.8740    2.2153    5.1137 H   0  0  0  0  0  0 
    2.3045    3.8589    1.2653 H   0  0  0  0  0  0 
    1.5148    4.6174    2.6326 H   0  0  0  0  0  0 
    4.7707    4.2756    0.9014 H   0  0  0  0  0  0 
    5.4854    5.6878    1.6605 H   0  0  0  0  0  0 
    3.7384    7.1440    0.4311 H   0  0  0  0  0  0 
    5.0010    6.4148   -0.5679 H   0  0  0  0  0  0 
  1  2  1  0
  1 12  1  0
  1 13  1  0
  1 14  1  0
  2  3  2  0
  2  4  1  0
  4  5  1  0
  4 15  1  0
  4 16  1  0
  5  6  2  0
  5  7  1  0
  7  8  1  0
  7 17  1  0
  7 18  1  0
  8  9  1  0
  8 19  1  0
  8 20  1  0
  9 10  1  0
  9 11  1  0
M  END
> <title>

> <MMFF94 energy>
-8.570795

$$$$
